[General]

network = campusEHmipNet
preload-ned-files=*.ned @../../../nedfiles.lst

total-stack-kb=17535
ini-warnings = no
warnings = yes
sim-time-limit = 202

[Cmdenv]
module-messages = no
event-banners = no

[Tkenv]
breakpoints-enabled = no
animation-speed = 1.0
[Parameters]


campusEHmipNet.mn1.pingApp.startTime=uniform(10, 11)
campusEHmipNet.mn1.pingApp.stopTime=700
campusEHmipNet.mn1.pingApp.destAddr="cn10"
campusEHmipNet.mn1.pingApp.interval=0.5


campusEHmipNet.mn2.pingApp.startTime=uniform(10, 11)
campusEHmipNet.mn2.pingApp.stopTime=700
campusEHmipNet.mn2.pingApp.destAddr="cn10"
campusEHmipNet.mn2.pingApp.interval=0.5


campusEHmipNet.mn3.pingApp.startTime=uniform(10, 11)
campusEHmipNet.mn3.pingApp.stopTime=700
campusEHmipNet.mn3.pingApp.destAddr="cn10"
campusEHmipNet.mn3.pingApp.interval=0.5


campusEHmipNet.mn4.pingApp.startTime=uniform(10, 11)
campusEHmipNet.mn4.pingApp.stopTime=700
campusEHmipNet.mn4.pingApp.destAddr="cn10"
campusEHmipNet.mn4.pingApp.interval=0.5


campusEHmipNet.mn5.pingApp.startTime=uniform(10, 11)
campusEHmipNet.mn5.pingApp.stopTime=700
campusEHmipNet.mn5.pingApp.destAddr="cn10"
campusEHmipNet.mn5.pingApp.interval=0.5


campusEHmipNet.mn6.pingApp.startTime=uniform(10, 11)
campusEHmipNet.mn6.pingApp.stopTime=700
campusEHmipNet.mn6.pingApp.destAddr="cn10"
campusEHmipNet.mn6.pingApp.interval=0.5


campusEHmipNet.mn7.pingApp.startTime=uniform(10, 11)
campusEHmipNet.mn7.pingApp.stopTime=700
campusEHmipNet.mn7.pingApp.destAddr="cn10"
campusEHmipNet.mn7.pingApp.interval=0.5


campusEHmipNet.mn8.pingApp.startTime=uniform(10, 11)
campusEHmipNet.mn8.pingApp.stopTime=700
campusEHmipNet.mn8.pingApp.destAddr="cn10"
campusEHmipNet.mn8.pingApp.interval=0.5


campusEHmipNet.mn9.pingApp.startTime=uniform(10, 11)
campusEHmipNet.mn9.pingApp.stopTime=700
campusEHmipNet.mn9.pingApp.destAddr="cn10"
campusEHmipNet.mn9.pingApp.interval=0.5


campusEHmipNet.mn10.pingApp.startTime=uniform(10, 11)
campusEHmipNet.mn10.pingApp.stopTime=700
campusEHmipNet.mn10.pingApp.destAddr="cn10"
campusEHmipNet.mn10.pingApp.interval=0.5


campusEHmipNet.mn11.pingApp.startTime=uniform(10, 11)
campusEHmipNet.mn11.pingApp.stopTime=700
campusEHmipNet.mn11.pingApp.destAddr="cn10"
campusEHmipNet.mn11.pingApp.interval=0.5


campusEHmipNet.mn12.pingApp.startTime=uniform(10, 11)
campusEHmipNet.mn12.pingApp.stopTime=700
campusEHmipNet.mn12.pingApp.destAddr="cn10"
campusEHmipNet.mn12.pingApp.interval=0.5


campusEHmipNet.mn13.pingApp.startTime=uniform(10, 11)
campusEHmipNet.mn13.pingApp.stopTime=700
campusEHmipNet.mn13.pingApp.destAddr="cn10"
campusEHmipNet.mn13.pingApp.interval=0.5


campusEHmipNet.mn14.pingApp.startTime=uniform(10, 11)
campusEHmipNet.mn14.pingApp.stopTime=700
campusEHmipNet.mn14.pingApp.destAddr="cn10"
campusEHmipNet.mn14.pingApp.interval=0.5


campusEHmipNet.mn15.pingApp.startTime=uniform(10, 11)
campusEHmipNet.mn15.pingApp.stopTime=700
campusEHmipNet.mn15.pingApp.destAddr="cn10"
campusEHmipNet.mn15.pingApp.interval=0.5


campusEHmipNet.mn16.pingApp.startTime=uniform(10, 11)
campusEHmipNet.mn16.pingApp.stopTime=700
campusEHmipNet.mn16.pingApp.destAddr="cn10"
campusEHmipNet.mn16.pingApp.interval=0.5


campusEHmipNet.mn17.pingApp.startTime=uniform(10, 11)
campusEHmipNet.mn17.pingApp.stopTime=700
campusEHmipNet.mn17.pingApp.destAddr="cn10"
campusEHmipNet.mn17.pingApp.interval=0.5


campusEHmipNet.mn18.pingApp.startTime=uniform(10, 11)
campusEHmipNet.mn18.pingApp.stopTime=700
campusEHmipNet.mn18.pingApp.destAddr="cn10"
campusEHmipNet.mn18.pingApp.interval=0.5


campusEHmipNet.mn19.pingApp.startTime=uniform(10, 11)
campusEHmipNet.mn19.pingApp.stopTime=700
campusEHmipNet.mn19.pingApp.destAddr="cn10"
campusEHmipNet.mn19.pingApp.interval=0.5


campusEHmipNet.mn20.pingApp.startTime=uniform(10, 11)
campusEHmipNet.mn20.pingApp.stopTime=700
campusEHmipNet.mn20.pingApp.destAddr="cn10"
campusEHmipNet.mn20.pingApp.interval=0.5


campusEHmipNet.mn21.pingApp.startTime=uniform(10, 11)
campusEHmipNet.mn21.pingApp.stopTime=700
campusEHmipNet.mn21.pingApp.destAddr="cn10"
campusEHmipNet.mn21.pingApp.interval=0.5


campusEHmipNet.mn22.pingApp.startTime=uniform(10, 11)
campusEHmipNet.mn22.pingApp.stopTime=700
campusEHmipNet.mn22.pingApp.destAddr="cn10"
campusEHmipNet.mn22.pingApp.interval=0.5


campusEHmipNet.mn23.pingApp.startTime=uniform(10, 11)
campusEHmipNet.mn23.pingApp.stopTime=700
campusEHmipNet.mn23.pingApp.destAddr="cn10"
campusEHmipNet.mn23.pingApp.interval=0.5


campusEHmipNet.mn24.pingApp.startTime=uniform(10, 11)
campusEHmipNet.mn24.pingApp.stopTime=700
campusEHmipNet.mn24.pingApp.destAddr="cn10"
campusEHmipNet.mn24.pingApp.interval=0.5


campusEHmipNet.mn25.pingApp.startTime=uniform(10, 11)
campusEHmipNet.mn25.pingApp.stopTime=700
campusEHmipNet.mn25.pingApp.destAddr="cn10"
campusEHmipNet.mn25.pingApp.interval=0.5


campusEHmipNet.mn26.pingApp.startTime=uniform(10, 11)
campusEHmipNet.mn26.pingApp.stopTime=700
campusEHmipNet.mn26.pingApp.destAddr="cn10"
campusEHmipNet.mn26.pingApp.interval=0.5


campusEHmipNet.mn27.pingApp.startTime=uniform(10, 11)
campusEHmipNet.mn27.pingApp.stopTime=700
campusEHmipNet.mn27.pingApp.destAddr="cn10"
campusEHmipNet.mn27.pingApp.interval=0.5


campusEHmipNet.mn28.pingApp.startTime=uniform(10, 11)
campusEHmipNet.mn28.pingApp.stopTime=700
campusEHmipNet.mn28.pingApp.destAddr="cn10"
campusEHmipNet.mn28.pingApp.interval=0.5


campusEHmipNet.mn29.pingApp.startTime=uniform(10, 11)
campusEHmipNet.mn29.pingApp.stopTime=700
campusEHmipNet.mn29.pingApp.destAddr="cn10"
campusEHmipNet.mn29.pingApp.interval=0.5


campusEHmipNet.mn30.pingApp.startTime=uniform(10, 11)
campusEHmipNet.mn30.pingApp.stopTime=700
campusEHmipNet.mn30.pingApp.destAddr="cn10"
campusEHmipNet.mn30.pingApp.interval=0.5


campusEHmipNet.mn31.pingApp.startTime=uniform(10, 11)
campusEHmipNet.mn31.pingApp.stopTime=700
campusEHmipNet.mn31.pingApp.destAddr="cn10"
campusEHmipNet.mn31.pingApp.interval=0.5


campusEHmipNet.mn32.pingApp.startTime=uniform(10, 11)
campusEHmipNet.mn32.pingApp.stopTime=700
campusEHmipNet.mn32.pingApp.destAddr="cn10"
campusEHmipNet.mn32.pingApp.interval=0.5


campusEHmipNet.mn33.pingApp.startTime=uniform(10, 11)
campusEHmipNet.mn33.pingApp.stopTime=700
campusEHmipNet.mn33.pingApp.destAddr="cn10"
campusEHmipNet.mn33.pingApp.interval=0.5


campusEHmipNet.mn34.pingApp.startTime=uniform(10, 11)
campusEHmipNet.mn34.pingApp.stopTime=700
campusEHmipNet.mn34.pingApp.destAddr="cn10"
campusEHmipNet.mn34.pingApp.interval=0.5


campusEHmipNet.mn35.pingApp.startTime=uniform(10, 11)
campusEHmipNet.mn35.pingApp.stopTime=700
campusEHmipNet.mn35.pingApp.destAddr="cn10"
campusEHmipNet.mn35.pingApp.interval=0.5


campusEHmipNet.mn36.pingApp.startTime=uniform(10, 11)
campusEHmipNet.mn36.pingApp.stopTime=700
campusEHmipNet.mn36.pingApp.destAddr="cn10"
campusEHmipNet.mn36.pingApp.interval=0.5


campusEHmipNet.mn37.pingApp.startTime=uniform(10, 11)
campusEHmipNet.mn37.pingApp.stopTime=700
campusEHmipNet.mn37.pingApp.destAddr="cn10"
campusEHmipNet.mn37.pingApp.interval=0.5


campusEHmipNet.mn38.pingApp.startTime=uniform(10, 11)
campusEHmipNet.mn38.pingApp.stopTime=700
campusEHmipNet.mn38.pingApp.destAddr="cn10"
campusEHmipNet.mn38.pingApp.interval=0.5


campusEHmipNet.mn39.pingApp.startTime=uniform(10, 11)
campusEHmipNet.mn39.pingApp.stopTime=700
campusEHmipNet.mn39.pingApp.destAddr="cn10"
campusEHmipNet.mn39.pingApp.interval=0.5


campusEHmipNet.mn40.pingApp.startTime=uniform(10, 11)
campusEHmipNet.mn40.pingApp.stopTime=700
campusEHmipNet.mn40.pingApp.destAddr="cn10"
campusEHmipNet.mn40.pingApp.interval=0.5


campusEHmipNet.mn41.pingApp.startTime=uniform(10, 11)
campusEHmipNet.mn41.pingApp.stopTime=700
campusEHmipNet.mn41.pingApp.destAddr="cn10"
campusEHmipNet.mn41.pingApp.interval=0.5


campusEHmipNet.mn42.pingApp.startTime=uniform(10, 11)
campusEHmipNet.mn42.pingApp.stopTime=700
campusEHmipNet.mn42.pingApp.destAddr="cn10"
campusEHmipNet.mn42.pingApp.interval=0.5


campusEHmipNet.mn43.pingApp.startTime=uniform(10, 11)
campusEHmipNet.mn43.pingApp.stopTime=700
campusEHmipNet.mn43.pingApp.destAddr="cn10"
campusEHmipNet.mn43.pingApp.interval=0.5


campusEHmipNet.mn44.pingApp.startTime=uniform(10, 11)
campusEHmipNet.mn44.pingApp.stopTime=700
campusEHmipNet.mn44.pingApp.destAddr="cn10"
campusEHmipNet.mn44.pingApp.interval=0.5


campusEHmipNet.mn45.pingApp.startTime=uniform(10, 11)
campusEHmipNet.mn45.pingApp.stopTime=700
campusEHmipNet.mn45.pingApp.destAddr="cn10"
campusEHmipNet.mn45.pingApp.interval=0.5


campusEHmipNet.mn46.pingApp.startTime=uniform(10, 11)
campusEHmipNet.mn46.pingApp.stopTime=700
campusEHmipNet.mn46.pingApp.destAddr="cn10"
campusEHmipNet.mn46.pingApp.interval=0.5


campusEHmipNet.mn47.pingApp.startTime=uniform(10, 11)
campusEHmipNet.mn47.pingApp.stopTime=700
campusEHmipNet.mn47.pingApp.destAddr="cn10"
campusEHmipNet.mn47.pingApp.interval=0.5


campusEHmipNet.mn48.pingApp.startTime=uniform(10, 11)
campusEHmipNet.mn48.pingApp.stopTime=700
campusEHmipNet.mn48.pingApp.destAddr="cn10"
campusEHmipNet.mn48.pingApp.interval=0.5


campusEHmipNet.mn49.pingApp.startTime=uniform(10, 11)
campusEHmipNet.mn49.pingApp.stopTime=700
campusEHmipNet.mn49.pingApp.destAddr="cn10"
campusEHmipNet.mn49.pingApp.interval=0.5


campusEHmipNet.mn50.pingApp.startTime=uniform(10, 11)
campusEHmipNet.mn50.pingApp.stopTime=700
campusEHmipNet.mn50.pingApp.destAddr="cn10"
campusEHmipNet.mn50.pingApp.interval=0.5


;;Videostream server
campusEHmipNet.cn10.numOfUDPApps = 1
campusEHmipNet.cn10.udpApps[0].UDPAppName = "UDPVideoStreamSvr"
campusEHmipNet.cn10.udpApps[0].udpApp.server = true
campusEHmipNet.cn10.udpApps[0].udpApp.videoSize = 1e8
campusEHmipNet.cn10.udpApps[0].udpApp.UDPPort = 3088
;general udp characteristics
campusEHmipNet.**.minWaitInt = .01
campusEHmipNet.**.maxWaitInt = .01
campusEHmipNet.**.minPacketLen = 1000
campusEHmipNet.**.maxPacketLen = 1000 ; should not be bigger than 16000 bytes

;general ping characteristics
;campusEHmipNet.mn**.networkLayer.proc.ICMP.icmpv6Core.icmpRecordRequests = true
;campusEHmipNet.mn**.networkLayer.proc.ICMP.icmpv6Core.replyToICMPRequests = false
;campusEHmipNet.mn**.networkLayer.proc.ICMP.icmpv6Core.icmpRecordStart = 155
;campusEHmipNet.cn**.ping6App.interval = 0.01
;campusEHmipNet.cn**.ping6App.packetSize = 1000


campusEHmipNet.**.IPv6routingFile = xmldoc("CampusEHmip.xml")
campusEHmipNet.mn**.linkLayers[*].NWIName="WirelessEtherModule"
campusEHmipNet.**.networkInterface.authenticationTimeout = 3000
campusEHmipNet.**.networkInterface.associationTimeout = 3000
campusEHmipNet.**.networkInterface.txPower = 1.5
campusEHmipNet.**.networkInterface.linkUpTrigger = true
campusEHmipNet.**.networkInterface.linkDownTrigger = true
campusEHmipNet.**.networkLayer.proc.mobility.homeAgent = "30fb:0:0:1:b000:0:0:0"
;;Can't use name yet as resolver complains about unable to resolve at initialise
campusEHmipNet.**.networkLayer.proc.mobility.homeAgent = "ha11"

campusEHmipNet.ap12.chann=6
campusEHmipNet.ap13.chann=1
campusEHmipNet.ap14.chann=1
campusEHmipNet.ap15.chann=11
campusEHmipNet.ap16.chann=1
campusEHmipNet.ap17.chann=6
campusEHmipNet.ap18.chann=6
campusEHmipNet.ap19.chann=11
campusEHmipNet.ap20.chann=1
campusEHmipNet.ap21.chann=1
campusEHmipNet.ap22.chann=6
campusEHmipNet.ap23.chann=11
campusEHmipNet.ap24.chann=6
campusEHmipNet.ap25.chann=1
campusEHmipNet.ap26.chann=1
campusEHmipNet.ap27.chann=11
campusEHmipNet.ap28.chann=1
campusEHmipNet.ap29.chann=6
campusEHmipNet.ap30.chann=6
campusEHmipNet.ap31.chann=11
campusEHmipNet.ap32.chann=1
campusEHmipNet.ap33.chann=1
campusEHmipNet.ap34.chann=6
campusEHmipNet.ap35.chann=11
campusEHmipNet.ap15.linkLayers[0].NWIName="EtherModule"
campusEHmipNet.ar6.linkLayers[0].NWIName="EtherModule"
campusEHmipNet.ap13.linkLayers[0].NWIName="EtherModule"
campusEHmipNet.ar5.linkLayers[0].NWIName="EtherModule"
campusEHmipNet.ar5.linkLayers[1].NWIName="EtherModule"
campusEHmipNet.ap14.linkLayers[0].NWIName="EtherModule"
campusEHmipNet.ar5.linkLayers[3].NWIName="EtherModule"
campusEHmipNet.ap12.linkLayers[0].NWIName="EtherModule"
campusEHmipNet.ap18.linkLayers[0].NWIName="EtherModule"
campusEHmipNet.ar7.linkLayers[0].NWIName="EtherModule"
campusEHmipNet.ap16.linkLayers[0].NWIName="EtherModule"
campusEHmipNet.ar6.linkLayers[1].NWIName="EtherModule"
campusEHmipNet.ap21.linkLayers[0].NWIName="EtherModule"
campusEHmipNet.ar2.linkLayers[1].NWIName="EtherModule"
campusEHmipNet.ap19.linkLayers[0].NWIName="EtherModule"
campusEHmipNet.ar7.linkLayers[1].NWIName="EtherModule"
campusEHmipNet.ar6.linkLayers[2].NWIName="EtherModule"
campusEHmipNet.ap17.linkLayers[0].NWIName="EtherModule"
campusEHmipNet.ap24.linkLayers[0].NWIName="EtherModule"
campusEHmipNet.ar8.linkLayers[1].NWIName="EtherModule"
campusEHmipNet.ap22.linkLayers[0].NWIName="EtherModule"
campusEHmipNet.ar2.linkLayers[2].NWIName="EtherModule"
campusEHmipNet.ap27.linkLayers[0].NWIName="EtherModule"
campusEHmipNet.ar3.linkLayers[0].NWIName="EtherModule"
campusEHmipNet.ap25.linkLayers[0].NWIName="EtherModule"
campusEHmipNet.ar8.linkLayers[2].NWIName="EtherModule"
campusEHmipNet.ap20.linkLayers[0].NWIName="EtherModule"
campusEHmipNet.ar7.linkLayers[3].NWIName="EtherModule"
campusEHmipNet.ap30.linkLayers[0].NWIName="EtherModule"
campusEHmipNet.ar9.linkLayers[1].NWIName="EtherModule"
campusEHmipNet.ap28.linkLayers[0].NWIName="EtherModule"
campusEHmipNet.ar3.linkLayers[1].NWIName="EtherModule"
campusEHmipNet.ap23.linkLayers[0].NWIName="EtherModule"
campusEHmipNet.ar2.linkLayers[4].NWIName="EtherModule"
campusEHmipNet.ap33.linkLayers[0].NWIName="EtherModule"
campusEHmipNet.ar4.linkLayers[0].NWIName="EtherModule"
campusEHmipNet.ap31.linkLayers[0].NWIName="EtherModule"
campusEHmipNet.ar9.linkLayers[2].NWIName="EtherModule"
campusEHmipNet.ap26.linkLayers[0].NWIName="EtherModule"
campusEHmipNet.ar8.linkLayers[3].NWIName="EtherModule"
campusEHmipNet.ap34.linkLayers[0].NWIName="EtherModule"
campusEHmipNet.ar4.linkLayers[1].NWIName="EtherModule"
campusEHmipNet.ap29.linkLayers[0].NWIName="EtherModule"
campusEHmipNet.ar3.linkLayers[3].NWIName="EtherModule"
campusEHmipNet.ap32.linkLayers[0].NWIName="EtherModule"
campusEHmipNet.ar9.linkLayers[3].NWIName="EtherModule"
campusEHmipNet.ap35.linkLayers[0].NWIName="EtherModule"
campusEHmipNet.ar4.linkLayers[3].NWIName="EtherModule"
campusEHmipNet.*ap*.wirelessAccessPoint.networkInterface.nwiXmlConfig=xmldoc("CampusEHmip.xml","netconf/global/WirelessEtherInfo/WEInfo")
campusEHmipNet.mn*.linkLayers[0].networkInterface.nwiXmlConfig=xmldoc("CampusEHmip.xml","netconf/global/WirelessEtherInfo/WEInfo")
;campusEHmipNet.*.ds[*].networkInterface.nwiXmlConfig=xmldoc("CampusEHmip.xml","netconf/global/WirelessEtherInfo/WEInfo")
campusEHmipNet.mn*.mobilityManager.MobilityName="MobilityRandomWP"
campusEHmipNet.mn*.mobilityManager.mobilityHandler.moveXmlConfig=xmldoc("CampusEHmip.xml","netconf/global/ObjectMovement/RandomMovement")

;everything else is assumed to be PPP Interface
*.cn.linkLayers[0].NWIName="IPv6PPPInterface"
*.cr*.linkLayers[*].NWIName="IPv6PPPInterface"
*.ar*.linkLayers[*].NWIName="IPv6PPPInterface"
*.cn*.linkLayers[*].NWIName="IPv6PPPInterface"
*.ha*.linkLayers[0].NWIName="IPv6PPPInterface"

[Run 1]
output-vector-file = CampusEHmip1.vec
output-scalar-file = CampusEHmip1.sca


[Run 2]
output-vector-file = CampusEHmip2.vec
output-scalar-file = CampusEHmip2.sca


[Run 3]
output-vector-file = CampusEHmip3.vec
output-scalar-file = CampusEHmip3.sca


[Run 4]
output-vector-file = CampusEHmip4.vec
output-scalar-file = CampusEHmip4.sca


[Run 5]
output-vector-file = CampusEHmip5.vec
output-scalar-file = CampusEHmip5.sca


[Run 6]
output-vector-file = CampusEHmip6.vec
output-scalar-file = CampusEHmip6.sca


[Run 7]
output-vector-file = CampusEHmip7.vec
output-scalar-file = CampusEHmip7.sca


[Run 8]
output-vector-file = CampusEHmip8.vec
output-scalar-file = CampusEHmip8.sca


[Run 9]
output-vector-file = CampusEHmip9.vec
output-scalar-file = CampusEHmip9.sca


[Run 10]
output-vector-file = CampusEHmip10.vec
output-scalar-file = CampusEHmip10.sca


[Run 11]
output-vector-file = CampusEHmip11.vec
output-scalar-file = CampusEHmip11.sca


[Run 12]
output-vector-file = CampusEHmip12.vec
output-scalar-file = CampusEHmip12.sca


[Run 13]
output-vector-file = CampusEHmip13.vec
output-scalar-file = CampusEHmip13.sca


[Run 14]
output-vector-file = CampusEHmip14.vec
output-scalar-file = CampusEHmip14.sca


[Run 15]
output-vector-file = CampusEHmip15.vec
output-scalar-file = CampusEHmip15.sca


[Run 16]
output-vector-file = CampusEHmip16.vec
output-scalar-file = CampusEHmip16.sca


[Run 17]
output-vector-file = CampusEHmip17.vec
output-scalar-file = CampusEHmip17.sca


[Run 18]
output-vector-file = CampusEHmip18.vec
output-scalar-file = CampusEHmip18.sca


[Run 19]
output-vector-file = CampusEHmip19.vec
output-scalar-file = CampusEHmip19.sca


[Run 20]
output-vector-file = CampusEHmip20.vec
output-scalar-file = CampusEHmip20.sca

[Run 21]
output-vector-file = CampusEHmip21.vec
output-scalar-file = CampusEHmip21.sca
[Run 22]
output-vector-file = CampusEHmip22.vec
output-scalar-file = CampusEHmip22.sca
[Run 23]
output-vector-file = CampusEHmip23.vec
output-scalar-file = CampusEHmip23.sca
[Run 24]
output-vector-file = CampusEHmip24.vec
output-scalar-file = CampusEHmip24.sca
[Run 25]
output-vector-file = CampusEHmip25.vec
output-scalar-file = CampusEHmip25.sca
[Run 26]
output-vector-file = CampusEHmip26.vec
output-scalar-file = CampusEHmip26.sca
[Run 27]
output-vector-file = CampusEHmip27.vec
output-scalar-file = CampusEHmip27.sca
[Run 28]
output-vector-file = CampusEHmip28.vec
output-scalar-file = CampusEHmip28.sca
[Run 29]
output-vector-file = CampusEHmip29.vec
output-scalar-file = CampusEHmip29.sca
[Run 30]
output-vector-file = CampusEHmip30.vec
output-scalar-file = CampusEHmip30.sca
[Run 31]
output-vector-file = CampusEHmip31.vec
output-scalar-file = CampusEHmip31.sca
[Run 32]
output-vector-file = CampusEHmip32.vec
output-scalar-file = CampusEHmip32.sca
[Run 33]
output-vector-file = CampusEHmip33.vec
output-scalar-file = CampusEHmip33.sca
[Run 34]
output-vector-file = CampusEHmip34.vec
output-scalar-file = CampusEHmip34.sca
[Run 35]
output-vector-file = CampusEHmip35.vec
output-scalar-file = CampusEHmip35.sca
[Run 36]
output-vector-file = CampusEHmip36.vec
output-scalar-file = CampusEHmip36.sca
[Run 37]
output-vector-file = CampusEHmip37.vec
output-scalar-file = CampusEHmip37.sca
[Run 38]
output-vector-file = CampusEHmip38.vec
output-scalar-file = CampusEHmip38.sca
[Run 39]
output-vector-file = CampusEHmip39.vec
output-scalar-file = CampusEHmip39.sca
[Run 40]
output-vector-file = CampusEHmip40.vec
output-scalar-file = CampusEHmip40.sca
[Run 41]
output-vector-file = CampusEHmip41.vec
output-scalar-file = CampusEHmip41.sca
[Run 42]
output-vector-file = CampusEHmip42.vec
output-scalar-file = CampusEHmip42.sca
[Run 43]
output-vector-file = CampusEHmip43.vec
output-scalar-file = CampusEHmip43.sca
[Run 44]
output-vector-file = CampusEHmip44.vec
output-scalar-file = CampusEHmip44.sca
[Run 45]
output-vector-file = CampusEHmip45.vec
output-scalar-file = CampusEHmip45.sca
[Run 46]
output-vector-file = CampusEHmip46.vec
output-scalar-file = CampusEHmip46.sca
[Run 47]
output-vector-file = CampusEHmip47.vec
output-scalar-file = CampusEHmip47.sca
[Run 48]
output-vector-file = CampusEHmip48.vec
output-scalar-file = CampusEHmip48.sca
[Run 49]
output-vector-file = CampusEHmip49.vec
output-scalar-file = CampusEHmip49.sca
[Run 50]
output-vector-file = CampusEHmip50.vec
output-scalar-file = CampusEHmip50.sca
[Run 51]
output-vector-file = CampusEHmip51.vec
output-scalar-file = CampusEHmip51.sca
[Run 52]
output-vector-file = CampusEHmip52.vec
output-scalar-file = CampusEHmip52.sca
[Run 53]
output-vector-file = CampusEHmip53.vec
output-scalar-file = CampusEHmip53.sca
[Run 54]
output-vector-file = CampusEHmip54.vec
output-scalar-file = CampusEHmip54.sca
[Run 55]
output-vector-file = CampusEHmip55.vec
output-scalar-file = CampusEHmip55.sca
[Run 56]
output-vector-file = CampusEHmip56.vec
output-scalar-file = CampusEHmip56.sca
[Run 57]
output-vector-file = CampusEHmip57.vec
output-scalar-file = CampusEHmip57.sca
[Run 58]
output-vector-file = CampusEHmip58.vec
output-scalar-file = CampusEHmip58.sca
[Run 59]
output-vector-file = CampusEHmip59.vec
output-scalar-file = CampusEHmip59.sca
[Run 60]
output-vector-file = CampusEHmip60.vec
output-scalar-file = CampusEHmip60.sca


include ../../../Etc/default.ini
