[General]

network = campusEHhmipNet
preload-ned-files=*.ned @../../../nedfiles.lst

total-stack-kb=17535
ini-warnings = no
warnings = yes
sim-time-limit = 202

[Cmdenv]
module-messages = no
event-banners = no

[Tkenv]
breakpoints-enabled = no
animation-speed = 1.0
[Parameters]


campusEHhmipNet.mn1.pingApp.startTime=uniform(10, 11)
campusEHhmipNet.mn1.pingApp.stopTime=700
campusEHhmipNet.mn1.pingApp.destAddr="cn10"
campusEHhmipNet.mn1.pingApp.interval=0.5


campusEHhmipNet.mn2.pingApp.startTime=uniform(10, 11)
campusEHhmipNet.mn2.pingApp.stopTime=700
campusEHhmipNet.mn2.pingApp.destAddr="cn10"
campusEHhmipNet.mn2.pingApp.interval=0.5


campusEHhmipNet.mn3.pingApp.startTime=uniform(10, 11)
campusEHhmipNet.mn3.pingApp.stopTime=700
campusEHhmipNet.mn3.pingApp.destAddr="cn10"
campusEHhmipNet.mn3.pingApp.interval=0.5


campusEHhmipNet.mn4.pingApp.startTime=uniform(10, 11)
campusEHhmipNet.mn4.pingApp.stopTime=700
campusEHhmipNet.mn4.pingApp.destAddr="cn10"
campusEHhmipNet.mn4.pingApp.interval=0.5


campusEHhmipNet.mn5.pingApp.startTime=uniform(10, 11)
campusEHhmipNet.mn5.pingApp.stopTime=700
campusEHhmipNet.mn5.pingApp.destAddr="cn10"
campusEHhmipNet.mn5.pingApp.interval=0.5


campusEHhmipNet.mn6.pingApp.startTime=uniform(10, 11)
campusEHhmipNet.mn6.pingApp.stopTime=700
campusEHhmipNet.mn6.pingApp.destAddr="cn10"
campusEHhmipNet.mn6.pingApp.interval=0.5


campusEHhmipNet.mn7.pingApp.startTime=uniform(10, 11)
campusEHhmipNet.mn7.pingApp.stopTime=700
campusEHhmipNet.mn7.pingApp.destAddr="cn10"
campusEHhmipNet.mn7.pingApp.interval=0.5


campusEHhmipNet.mn8.pingApp.startTime=uniform(10, 11)
campusEHhmipNet.mn8.pingApp.stopTime=700
campusEHhmipNet.mn8.pingApp.destAddr="cn10"
campusEHhmipNet.mn8.pingApp.interval=0.5


campusEHhmipNet.mn9.pingApp.startTime=uniform(10, 11)
campusEHhmipNet.mn9.pingApp.stopTime=700
campusEHhmipNet.mn9.pingApp.destAddr="cn10"
campusEHhmipNet.mn9.pingApp.interval=0.5


campusEHhmipNet.mn10.pingApp.startTime=uniform(10, 11)
campusEHhmipNet.mn10.pingApp.stopTime=700
campusEHhmipNet.mn10.pingApp.destAddr="cn10"
campusEHhmipNet.mn10.pingApp.interval=0.5


campusEHhmipNet.mn11.pingApp.startTime=uniform(10, 11)
campusEHhmipNet.mn11.pingApp.stopTime=700
campusEHhmipNet.mn11.pingApp.destAddr="cn10"
campusEHhmipNet.mn11.pingApp.interval=0.5


campusEHhmipNet.mn12.pingApp.startTime=uniform(10, 11)
campusEHhmipNet.mn12.pingApp.stopTime=700
campusEHhmipNet.mn12.pingApp.destAddr="cn10"
campusEHhmipNet.mn12.pingApp.interval=0.5


campusEHhmipNet.mn13.pingApp.startTime=uniform(10, 11)
campusEHhmipNet.mn13.pingApp.stopTime=700
campusEHhmipNet.mn13.pingApp.destAddr="cn10"
campusEHhmipNet.mn13.pingApp.interval=0.5


campusEHhmipNet.mn14.pingApp.startTime=uniform(10, 11)
campusEHhmipNet.mn14.pingApp.stopTime=700
campusEHhmipNet.mn14.pingApp.destAddr="cn10"
campusEHhmipNet.mn14.pingApp.interval=0.5


campusEHhmipNet.mn15.pingApp.startTime=uniform(10, 11)
campusEHhmipNet.mn15.pingApp.stopTime=700
campusEHhmipNet.mn15.pingApp.destAddr="cn10"
campusEHhmipNet.mn15.pingApp.interval=0.5


campusEHhmipNet.mn16.pingApp.startTime=uniform(10, 11)
campusEHhmipNet.mn16.pingApp.stopTime=700
campusEHhmipNet.mn16.pingApp.destAddr="cn10"
campusEHhmipNet.mn16.pingApp.interval=0.5


campusEHhmipNet.mn17.pingApp.startTime=uniform(10, 11)
campusEHhmipNet.mn17.pingApp.stopTime=700
campusEHhmipNet.mn17.pingApp.destAddr="cn10"
campusEHhmipNet.mn17.pingApp.interval=0.5


campusEHhmipNet.mn18.pingApp.startTime=uniform(10, 11)
campusEHhmipNet.mn18.pingApp.stopTime=700
campusEHhmipNet.mn18.pingApp.destAddr="cn10"
campusEHhmipNet.mn18.pingApp.interval=0.5


campusEHhmipNet.mn19.pingApp.startTime=uniform(10, 11)
campusEHhmipNet.mn19.pingApp.stopTime=700
campusEHhmipNet.mn19.pingApp.destAddr="cn10"
campusEHhmipNet.mn19.pingApp.interval=0.5


campusEHhmipNet.mn20.pingApp.startTime=uniform(10, 11)
campusEHhmipNet.mn20.pingApp.stopTime=700
campusEHhmipNet.mn20.pingApp.destAddr="cn10"
campusEHhmipNet.mn20.pingApp.interval=0.5


campusEHhmipNet.mn21.pingApp.startTime=uniform(10, 11)
campusEHhmipNet.mn21.pingApp.stopTime=700
campusEHhmipNet.mn21.pingApp.destAddr="cn10"
campusEHhmipNet.mn21.pingApp.interval=0.5


campusEHhmipNet.mn22.pingApp.startTime=uniform(10, 11)
campusEHhmipNet.mn22.pingApp.stopTime=700
campusEHhmipNet.mn22.pingApp.destAddr="cn10"
campusEHhmipNet.mn22.pingApp.interval=0.5


campusEHhmipNet.mn23.pingApp.startTime=uniform(10, 11)
campusEHhmipNet.mn23.pingApp.stopTime=700
campusEHhmipNet.mn23.pingApp.destAddr="cn10"
campusEHhmipNet.mn23.pingApp.interval=0.5


campusEHhmipNet.mn24.pingApp.startTime=uniform(10, 11)
campusEHhmipNet.mn24.pingApp.stopTime=700
campusEHhmipNet.mn24.pingApp.destAddr="cn10"
campusEHhmipNet.mn24.pingApp.interval=0.5


campusEHhmipNet.mn25.pingApp.startTime=uniform(10, 11)
campusEHhmipNet.mn25.pingApp.stopTime=700
campusEHhmipNet.mn25.pingApp.destAddr="cn10"
campusEHhmipNet.mn25.pingApp.interval=0.5


campusEHhmipNet.mn26.pingApp.startTime=uniform(10, 11)
campusEHhmipNet.mn26.pingApp.stopTime=700
campusEHhmipNet.mn26.pingApp.destAddr="cn10"
campusEHhmipNet.mn26.pingApp.interval=0.5


campusEHhmipNet.mn27.pingApp.startTime=uniform(10, 11)
campusEHhmipNet.mn27.pingApp.stopTime=700
campusEHhmipNet.mn27.pingApp.destAddr="cn10"
campusEHhmipNet.mn27.pingApp.interval=0.5


campusEHhmipNet.mn28.pingApp.startTime=uniform(10, 11)
campusEHhmipNet.mn28.pingApp.stopTime=700
campusEHhmipNet.mn28.pingApp.destAddr="cn10"
campusEHhmipNet.mn28.pingApp.interval=0.5


campusEHhmipNet.mn29.pingApp.startTime=uniform(10, 11)
campusEHhmipNet.mn29.pingApp.stopTime=700
campusEHhmipNet.mn29.pingApp.destAddr="cn10"
campusEHhmipNet.mn29.pingApp.interval=0.5


campusEHhmipNet.mn30.pingApp.startTime=uniform(10, 11)
campusEHhmipNet.mn30.pingApp.stopTime=700
campusEHhmipNet.mn30.pingApp.destAddr="cn10"
campusEHhmipNet.mn30.pingApp.interval=0.5


campusEHhmipNet.mn31.pingApp.startTime=uniform(10, 11)
campusEHhmipNet.mn31.pingApp.stopTime=700
campusEHhmipNet.mn31.pingApp.destAddr="cn10"
campusEHhmipNet.mn31.pingApp.interval=0.5


campusEHhmipNet.mn32.pingApp.startTime=uniform(10, 11)
campusEHhmipNet.mn32.pingApp.stopTime=700
campusEHhmipNet.mn32.pingApp.destAddr="cn10"
campusEHhmipNet.mn32.pingApp.interval=0.5


campusEHhmipNet.mn33.pingApp.startTime=uniform(10, 11)
campusEHhmipNet.mn33.pingApp.stopTime=700
campusEHhmipNet.mn33.pingApp.destAddr="cn10"
campusEHhmipNet.mn33.pingApp.interval=0.5


campusEHhmipNet.mn34.pingApp.startTime=uniform(10, 11)
campusEHhmipNet.mn34.pingApp.stopTime=700
campusEHhmipNet.mn34.pingApp.destAddr="cn10"
campusEHhmipNet.mn34.pingApp.interval=0.5


campusEHhmipNet.mn35.pingApp.startTime=uniform(10, 11)
campusEHhmipNet.mn35.pingApp.stopTime=700
campusEHhmipNet.mn35.pingApp.destAddr="cn10"
campusEHhmipNet.mn35.pingApp.interval=0.5


campusEHhmipNet.mn36.pingApp.startTime=uniform(10, 11)
campusEHhmipNet.mn36.pingApp.stopTime=700
campusEHhmipNet.mn36.pingApp.destAddr="cn10"
campusEHhmipNet.mn36.pingApp.interval=0.5


campusEHhmipNet.mn37.pingApp.startTime=uniform(10, 11)
campusEHhmipNet.mn37.pingApp.stopTime=700
campusEHhmipNet.mn37.pingApp.destAddr="cn10"
campusEHhmipNet.mn37.pingApp.interval=0.5


campusEHhmipNet.mn38.pingApp.startTime=uniform(10, 11)
campusEHhmipNet.mn38.pingApp.stopTime=700
campusEHhmipNet.mn38.pingApp.destAddr="cn10"
campusEHhmipNet.mn38.pingApp.interval=0.5


campusEHhmipNet.mn39.pingApp.startTime=uniform(10, 11)
campusEHhmipNet.mn39.pingApp.stopTime=700
campusEHhmipNet.mn39.pingApp.destAddr="cn10"
campusEHhmipNet.mn39.pingApp.interval=0.5


campusEHhmipNet.mn40.pingApp.startTime=uniform(10, 11)
campusEHhmipNet.mn40.pingApp.stopTime=700
campusEHhmipNet.mn40.pingApp.destAddr="cn10"
campusEHhmipNet.mn40.pingApp.interval=0.5


campusEHhmipNet.mn41.pingApp.startTime=uniform(10, 11)
campusEHhmipNet.mn41.pingApp.stopTime=700
campusEHhmipNet.mn41.pingApp.destAddr="cn10"
campusEHhmipNet.mn41.pingApp.interval=0.5


campusEHhmipNet.mn42.pingApp.startTime=uniform(10, 11)
campusEHhmipNet.mn42.pingApp.stopTime=700
campusEHhmipNet.mn42.pingApp.destAddr="cn10"
campusEHhmipNet.mn42.pingApp.interval=0.5


campusEHhmipNet.mn43.pingApp.startTime=uniform(10, 11)
campusEHhmipNet.mn43.pingApp.stopTime=700
campusEHhmipNet.mn43.pingApp.destAddr="cn10"
campusEHhmipNet.mn43.pingApp.interval=0.5


campusEHhmipNet.mn44.pingApp.startTime=uniform(10, 11)
campusEHhmipNet.mn44.pingApp.stopTime=700
campusEHhmipNet.mn44.pingApp.destAddr="cn10"
campusEHhmipNet.mn44.pingApp.interval=0.5


campusEHhmipNet.mn45.pingApp.startTime=uniform(10, 11)
campusEHhmipNet.mn45.pingApp.stopTime=700
campusEHhmipNet.mn45.pingApp.destAddr="cn10"
campusEHhmipNet.mn45.pingApp.interval=0.5


campusEHhmipNet.mn46.pingApp.startTime=uniform(10, 11)
campusEHhmipNet.mn46.pingApp.stopTime=700
campusEHhmipNet.mn46.pingApp.destAddr="cn10"
campusEHhmipNet.mn46.pingApp.interval=0.5


campusEHhmipNet.mn47.pingApp.startTime=uniform(10, 11)
campusEHhmipNet.mn47.pingApp.stopTime=700
campusEHhmipNet.mn47.pingApp.destAddr="cn10"
campusEHhmipNet.mn47.pingApp.interval=0.5


campusEHhmipNet.mn48.pingApp.startTime=uniform(10, 11)
campusEHhmipNet.mn48.pingApp.stopTime=700
campusEHhmipNet.mn48.pingApp.destAddr="cn10"
campusEHhmipNet.mn48.pingApp.interval=0.5


campusEHhmipNet.mn49.pingApp.startTime=uniform(10, 11)
campusEHhmipNet.mn49.pingApp.stopTime=700
campusEHhmipNet.mn49.pingApp.destAddr="cn10"
campusEHhmipNet.mn49.pingApp.interval=0.5


campusEHhmipNet.mn50.pingApp.startTime=uniform(10, 11)
campusEHhmipNet.mn50.pingApp.stopTime=700
campusEHhmipNet.mn50.pingApp.destAddr="cn10"
campusEHhmipNet.mn50.pingApp.interval=0.5


;;Videostream server
campusEHhmipNet.cn10.numOfUDPApps = 1
campusEHhmipNet.cn10.udpApps[0].UDPAppName = "UDPVideoStreamSvr"
campusEHhmipNet.cn10.udpApps[0].udpApp.server = true
campusEHhmipNet.cn10.udpApps[0].udpApp.videoSize = 1e8
campusEHhmipNet.cn10.udpApps[0].udpApp.UDPPort = 3088
;general udp characteristics
campusEHhmipNet.**.minWaitInt = .01
campusEHhmipNet.**.maxWaitInt = .01
campusEHhmipNet.**.minPacketLen = 1000
campusEHhmipNet.**.maxPacketLen = 1000 ; should not be bigger than 16000 bytes

;general ping characteristics
;campusEHhmipNet.mn**.networkLayer.proc.ICMP.icmpv6Core.icmpRecordRequests = true
;campusEHhmipNet.mn**.networkLayer.proc.ICMP.icmpv6Core.replyToICMPRequests = false
;campusEHhmipNet.mn**.networkLayer.proc.ICMP.icmpv6Core.icmpRecordStart = 155
;campusEHhmipNet.cn**.ping6App.interval = 0.01
;campusEHhmipNet.cn**.ping6App.packetSize = 1000


campusEHhmipNet.**.IPv6routingFile = xmldoc("CampusEHhmip.xml")
campusEHhmipNet.mn**.linkLayers[*].NWIName="WirelessEtherModule"
campusEHhmipNet.**.networkInterface.authenticationTimeout = 3000
campusEHhmipNet.**.networkInterface.associationTimeout = 3000
campusEHhmipNet.**.networkInterface.txPower = 1.5
campusEHhmipNet.**.networkInterface.linkUpTrigger = true
campusEHhmipNet.**.networkInterface.linkDownTrigger = true
campusEHhmipNet.**.networkLayer.proc.mobility.homeAgent = "30fb:0:0:1:b000:0:0:0"
;;Can't use name yet as resolver complains about unable to resolve at initialise
campusEHhmipNet.**.networkLayer.proc.mobility.homeAgent = "ha11"

campusEHhmipNet.ap12.chann=6
campusEHhmipNet.ap13.chann=1
campusEHhmipNet.ap14.chann=1
campusEHhmipNet.ap15.chann=11
campusEHhmipNet.ap16.chann=1
campusEHhmipNet.ap17.chann=6
campusEHhmipNet.ap18.chann=6
campusEHhmipNet.ap19.chann=11
campusEHhmipNet.ap20.chann=1
campusEHhmipNet.ap21.chann=1
campusEHhmipNet.ap22.chann=6
campusEHhmipNet.ap23.chann=11
campusEHhmipNet.ap24.chann=6
campusEHhmipNet.ap25.chann=1
campusEHhmipNet.ap26.chann=1
campusEHhmipNet.ap27.chann=11
campusEHhmipNet.ap28.chann=1
campusEHhmipNet.ap29.chann=6
campusEHhmipNet.ap30.chann=6
campusEHhmipNet.ap31.chann=11
campusEHhmipNet.ap32.chann=1
campusEHhmipNet.ap33.chann=1
campusEHhmipNet.ap34.chann=6
campusEHhmipNet.ap35.chann=11
campusEHhmipNet.ap12.linkLayers[0].NWIName="EtherModule"
campusEHhmipNet.ar5.linkLayers[0].NWIName="EtherModule"
campusEHhmipNet.ap15.linkLayers[0].NWIName="EtherModule"
campusEHhmipNet.ar6.linkLayers[0].NWIName="EtherModule"
campusEHhmipNet.ap13.linkLayers[0].NWIName="EtherModule"
campusEHhmipNet.ar5.linkLayers[1].NWIName="EtherModule"
campusEHhmipNet.ar5.linkLayers[2].NWIName="EtherModule"
campusEHhmipNet.ap14.linkLayers[0].NWIName="EtherModule"
campusEHhmipNet.ap18.linkLayers[0].NWIName="EtherModule"
campusEHhmipNet.ar7.linkLayers[0].NWIName="EtherModule"
campusEHhmipNet.ap16.linkLayers[0].NWIName="EtherModule"
campusEHhmipNet.ar6.linkLayers[1].NWIName="EtherModule"
campusEHhmipNet.ap21.linkLayers[0].NWIName="EtherModule"
campusEHhmipNet.ar2.linkLayers[1].NWIName="EtherModule"
campusEHhmipNet.ap19.linkLayers[0].NWIName="EtherModule"
campusEHhmipNet.ar7.linkLayers[1].NWIName="EtherModule"
campusEHhmipNet.ar6.linkLayers[2].NWIName="EtherModule"
campusEHhmipNet.ap17.linkLayers[0].NWIName="EtherModule"
campusEHhmipNet.ap24.linkLayers[0].NWIName="EtherModule"
campusEHhmipNet.ar8.linkLayers[1].NWIName="EtherModule"
campusEHhmipNet.ap22.linkLayers[0].NWIName="EtherModule"
campusEHhmipNet.ar2.linkLayers[2].NWIName="EtherModule"
campusEHhmipNet.ap27.linkLayers[0].NWIName="EtherModule"
campusEHhmipNet.ar3.linkLayers[0].NWIName="EtherModule"
campusEHhmipNet.ap25.linkLayers[0].NWIName="EtherModule"
campusEHhmipNet.ar8.linkLayers[2].NWIName="EtherModule"
campusEHhmipNet.ap20.linkLayers[0].NWIName="EtherModule"
campusEHhmipNet.ar7.linkLayers[3].NWIName="EtherModule"
campusEHhmipNet.ap30.linkLayers[0].NWIName="EtherModule"
campusEHhmipNet.ar9.linkLayers[1].NWIName="EtherModule"
campusEHhmipNet.ap28.linkLayers[0].NWIName="EtherModule"
campusEHhmipNet.ar3.linkLayers[1].NWIName="EtherModule"
campusEHhmipNet.ap23.linkLayers[0].NWIName="EtherModule"
campusEHhmipNet.ar2.linkLayers[4].NWIName="EtherModule"
campusEHhmipNet.ap33.linkLayers[0].NWIName="EtherModule"
campusEHhmipNet.ar4.linkLayers[0].NWIName="EtherModule"
campusEHhmipNet.ap31.linkLayers[0].NWIName="EtherModule"
campusEHhmipNet.ar9.linkLayers[2].NWIName="EtherModule"
campusEHhmipNet.ap26.linkLayers[0].NWIName="EtherModule"
campusEHhmipNet.ar8.linkLayers[3].NWIName="EtherModule"
campusEHhmipNet.ap34.linkLayers[0].NWIName="EtherModule"
campusEHhmipNet.ar4.linkLayers[1].NWIName="EtherModule"
campusEHhmipNet.ap29.linkLayers[0].NWIName="EtherModule"
campusEHhmipNet.ar3.linkLayers[3].NWIName="EtherModule"
campusEHhmipNet.ap32.linkLayers[0].NWIName="EtherModule"
campusEHhmipNet.ar9.linkLayers[3].NWIName="EtherModule"
campusEHhmipNet.ap35.linkLayers[0].NWIName="EtherModule"
campusEHhmipNet.ar4.linkLayers[3].NWIName="EtherModule"
campusEHhmipNet.*ap*.wirelessAccessPoint.networkInterface.nwiXmlConfig=xmldoc("CampusEHhmip.xml","netconf/global/WirelessEtherInfo/WEInfo")
campusEHhmipNet.mn*.linkLayers[0].networkInterface.nwiXmlConfig=xmldoc("CampusEHhmip.xml","netconf/global/WirelessEtherInfo/WEInfo")
;campusEHhmipNet.*.ds[*].networkInterface.nwiXmlConfig=xmldoc("CampusEHhmip.xml","netconf/global/WirelessEtherInfo/WEInfo")
campusEHhmipNet.mn*.mobilityManager.MobilityName="MobilityRandomWP"
campusEHhmipNet.mn*.mobilityManager.mobilityHandler.moveXmlConfig=xmldoc("CampusEHhmip.xml","netconf/global/ObjectMovement/RandomMovement")

;everything else is assumed to be PPP Interface
*.cn.linkLayers[0].NWIName="IPv6PPPInterface"
*.cr*.linkLayers[*].NWIName="IPv6PPPInterface"
*.ar*.linkLayers[*].NWIName="IPv6PPPInterface"
*.cn*.linkLayers[*].NWIName="IPv6PPPInterface"
*.ha*.linkLayers[0].NWIName="IPv6PPPInterface"

[Run 1]
output-vector-file = CampusEHhmip1.vec
output-scalar-file = CampusEHhmip1.sca


[Run 2]
output-vector-file = CampusEHhmip2.vec
output-scalar-file = CampusEHhmip2.sca


[Run 3]
output-vector-file = CampusEHhmip3.vec
output-scalar-file = CampusEHhmip3.sca


[Run 4]
output-vector-file = CampusEHhmip4.vec
output-scalar-file = CampusEHhmip4.sca


[Run 5]
output-vector-file = CampusEHhmip5.vec
output-scalar-file = CampusEHhmip5.sca


[Run 6]
output-vector-file = CampusEHhmip6.vec
output-scalar-file = CampusEHhmip6.sca


[Run 7]
output-vector-file = CampusEHhmip7.vec
output-scalar-file = CampusEHhmip7.sca


[Run 8]
output-vector-file = CampusEHhmip8.vec
output-scalar-file = CampusEHhmip8.sca


[Run 9]
output-vector-file = CampusEHhmip9.vec
output-scalar-file = CampusEHhmip9.sca


[Run 10]
output-vector-file = CampusEHhmip10.vec
output-scalar-file = CampusEHhmip10.sca


[Run 11]
output-vector-file = CampusEHhmip11.vec
output-scalar-file = CampusEHhmip11.sca


[Run 12]
output-vector-file = CampusEHhmip12.vec
output-scalar-file = CampusEHhmip12.sca


[Run 13]
output-vector-file = CampusEHhmip13.vec
output-scalar-file = CampusEHhmip13.sca


[Run 14]
output-vector-file = CampusEHhmip14.vec
output-scalar-file = CampusEHhmip14.sca


[Run 15]
output-vector-file = CampusEHhmip15.vec
output-scalar-file = CampusEHhmip15.sca


[Run 16]
output-vector-file = CampusEHhmip16.vec
output-scalar-file = CampusEHhmip16.sca


[Run 17]
output-vector-file = CampusEHhmip17.vec
output-scalar-file = CampusEHhmip17.sca


[Run 18]
output-vector-file = CampusEHhmip18.vec
output-scalar-file = CampusEHhmip18.sca


[Run 19]
output-vector-file = CampusEHhmip19.vec
output-scalar-file = CampusEHhmip19.sca


[Run 20]
output-vector-file = CampusEHhmip20.vec
output-scalar-file = CampusEHhmip20.sca

[Run 1]
output-vector-file = CampusEHhmip1.vec
output-scalar-file = CampusEHhmip1.sca
[Run 2]
output-vector-file = CampusEHhmip2.vec
output-scalar-file = CampusEHhmip2.sca
[Run 3]
output-vector-file = CampusEHhmip3.vec
output-scalar-file = CampusEHhmip3.sca
[Run 4]
output-vector-file = CampusEHhmip4.vec
output-scalar-file = CampusEHhmip4.sca
[Run 5]
output-vector-file = CampusEHhmip5.vec
output-scalar-file = CampusEHhmip5.sca
[Run 6]
output-vector-file = CampusEHhmip6.vec
output-scalar-file = CampusEHhmip6.sca
[Run 7]
output-vector-file = CampusEHhmip7.vec
output-scalar-file = CampusEHhmip7.sca
[Run 8]
output-vector-file = CampusEHhmip8.vec
output-scalar-file = CampusEHhmip8.sca
[Run 9]
output-vector-file = CampusEHhmip9.vec
output-scalar-file = CampusEHhmip9.sca
[Run 10]
output-vector-file = CampusEHhmip10.vec
output-scalar-file = CampusEHhmip10.sca
[Run 11]
output-vector-file = CampusEHhmip11.vec
output-scalar-file = CampusEHhmip11.sca
[Run 12]
output-vector-file = CampusEHhmip12.vec
output-scalar-file = CampusEHhmip12.sca
[Run 13]
output-vector-file = CampusEHhmip13.vec
output-scalar-file = CampusEHhmip13.sca
[Run 14]
output-vector-file = CampusEHhmip14.vec
output-scalar-file = CampusEHhmip14.sca
[Run 15]
output-vector-file = CampusEHhmip15.vec
output-scalar-file = CampusEHhmip15.sca
[Run 16]
output-vector-file = CampusEHhmip16.vec
output-scalar-file = CampusEHhmip16.sca
[Run 17]
output-vector-file = CampusEHhmip17.vec
output-scalar-file = CampusEHhmip17.sca
[Run 18]
output-vector-file = CampusEHhmip18.vec
output-scalar-file = CampusEHhmip18.sca
[Run 19]
output-vector-file = CampusEHhmip19.vec
output-scalar-file = CampusEHhmip19.sca
[Run 20]
output-vector-file = CampusEHhmip20.vec
output-scalar-file = CampusEHhmip20.sca
[Run 21]
output-vector-file = CampusEHhmip21.vec
output-scalar-file = CampusEHhmip21.sca
[Run 22]
output-vector-file = CampusEHhmip22.vec
output-scalar-file = CampusEHhmip22.sca
[Run 23]
output-vector-file = CampusEHhmip23.vec
output-scalar-file = CampusEHhmip23.sca
[Run 24]
output-vector-file = CampusEHhmip24.vec
output-scalar-file = CampusEHhmip24.sca
[Run 25]
output-vector-file = CampusEHhmip25.vec
output-scalar-file = CampusEHhmip25.sca
[Run 26]
output-vector-file = CampusEHhmip26.vec
output-scalar-file = CampusEHhmip26.sca
[Run 27]
output-vector-file = CampusEHhmip27.vec
output-scalar-file = CampusEHhmip27.sca
[Run 28]
output-vector-file = CampusEHhmip28.vec
output-scalar-file = CampusEHhmip28.sca
[Run 29]
output-vector-file = CampusEHhmip29.vec
output-scalar-file = CampusEHhmip29.sca
[Run 30]
output-vector-file = CampusEHhmip30.vec
output-scalar-file = CampusEHhmip30.sca
[Run 31]
output-vector-file = CampusEHhmip31.vec
output-scalar-file = CampusEHhmip31.sca
[Run 32]
output-vector-file = CampusEHhmip32.vec
output-scalar-file = CampusEHhmip32.sca
[Run 33]
output-vector-file = CampusEHhmip33.vec
output-scalar-file = CampusEHhmip33.sca
[Run 34]
output-vector-file = CampusEHhmip34.vec
output-scalar-file = CampusEHhmip34.sca
[Run 35]
output-vector-file = CampusEHhmip35.vec
output-scalar-file = CampusEHhmip35.sca
[Run 36]
output-vector-file = CampusEHhmip36.vec
output-scalar-file = CampusEHhmip36.sca
[Run 37]
output-vector-file = CampusEHhmip37.vec
output-scalar-file = CampusEHhmip37.sca
[Run 38]
output-vector-file = CampusEHhmip38.vec
output-scalar-file = CampusEHhmip38.sca
[Run 39]
output-vector-file = CampusEHhmip39.vec
output-scalar-file = CampusEHhmip39.sca
[Run 40]
output-vector-file = CampusEHhmip40.vec
output-scalar-file = CampusEHhmip40.sca
[Run 41]
output-vector-file = CampusEHhmip41.vec
output-scalar-file = CampusEHhmip41.sca
[Run 42]
output-vector-file = CampusEHhmip42.vec
output-scalar-file = CampusEHhmip42.sca
[Run 43]
output-vector-file = CampusEHhmip43.vec
output-scalar-file = CampusEHhmip43.sca
[Run 44]
output-vector-file = CampusEHhmip44.vec
output-scalar-file = CampusEHhmip44.sca
[Run 45]
output-vector-file = CampusEHhmip45.vec
output-scalar-file = CampusEHhmip45.sca
[Run 46]
output-vector-file = CampusEHhmip46.vec
output-scalar-file = CampusEHhmip46.sca
[Run 47]
output-vector-file = CampusEHhmip47.vec
output-scalar-file = CampusEHhmip47.sca
[Run 48]
output-vector-file = CampusEHhmip48.vec
output-scalar-file = CampusEHhmip48.sca
[Run 49]
output-vector-file = CampusEHhmip49.vec
output-scalar-file = CampusEHhmip49.sca
[Run 50]
output-vector-file = CampusEHhmip50.vec
output-scalar-file = CampusEHhmip50.sca
[Run 51]
output-vector-file = CampusEHhmip51.vec
output-scalar-file = CampusEHhmip51.sca
[Run 52]
output-vector-file = CampusEHhmip52.vec
output-scalar-file = CampusEHhmip52.sca
[Run 53]
output-vector-file = CampusEHhmip53.vec
output-scalar-file = CampusEHhmip53.sca
[Run 54]
output-vector-file = CampusEHhmip54.vec
output-scalar-file = CampusEHhmip54.sca
[Run 55]
output-vector-file = CampusEHhmip55.vec
output-scalar-file = CampusEHhmip55.sca
[Run 56]
output-vector-file = CampusEHhmip56.vec
output-scalar-file = CampusEHhmip56.sca
[Run 57]
output-vector-file = CampusEHhmip57.vec
output-scalar-file = CampusEHhmip57.sca
[Run 58]
output-vector-file = CampusEHhmip58.vec
output-scalar-file = CampusEHhmip58.sca
[Run 59]
output-vector-file = CampusEHhmip59.vec
output-scalar-file = CampusEHhmip59.sca
[Run 60]
output-vector-file = CampusEHhmip60.vec
output-scalar-file = CampusEHhmip60.sca

include ../../../Etc/default.ini
