[General]
preload-ned-files=*.ned @../../../nedfiles.lst
network = singleRouter

total-stack-kb=7535
ini-warnings = no
warnings = no
sim-time-limit = 101s

[Cmdenv]
module-messages = yes
event-banners = no

[Tkenv]
default-run=1
breakpoints-enabled = no
animation-speed = 1.0

[Parameters]
singleRouter.client1.pingApp.startTime=30
singleRouter.client1.pingApp.stopTime=100
singleRouter.client1.pingApp.destAddr = "AAAA:0:0:3333:127b:c0ff:fe2e:7212"
singleRouter.client1.pingApp.interval=1


singleRouter.client2.numOfUDPClientApps=1
singleRouter.*.udpAppClients[*].startTime = 100
singleRouter.client2.udpAppClients[0].UDPAppClientName= "UDPVideoStreamCnt"
singleRouter.client2.udpAppClients[0].UDPServerAddress= "AAAA:0:0:3333:127b:c0ff:fe2e:7212"
singleRouter.client2.udpAppClients[0].UDPServerPort=7001
singleRouter.client2.udpAppClients[0].IPversion=6

singleRouter.server.numOfUDPServerApps=1
singleRouter.server.udpAppServers[0].UDPAppServerName= "UDPVideoStreamSvr"
singleRouter.server.udpAppServers[0].IPversion=6
singleRouter.server.udpAppServers[0].UDPPort=7001


singleRouter.*.IPv6routingFile = xmldoc("SingleRouter.xml")

include ../../../Etc/default.ini
