#% old-wildcards
[General]
preload-ned-files=*.ned @../../../nedfiles.lst
debug-on-errors=false

total-stack-kb=7535
ini-warnings = no
warnings = yes
sim-time-limit = 5001
;fname-append-host=yes

[Cmdenv]
module-messages = no
event-banners=no

[Tkenv]
breakpoints-enabled = no
animation-speed = 1.0

[Parameters]

fourFAR.mn?.mobilityManager.MobilityName="MobilityRandomWP"
fourFAR.mn1.linkLayers.networkInterface.address="aa:bb:cc:dd:ee:01"
fourFAR.mn2.linkLayers.networkInterface.address="aa:bb:cc:dd:ee:02"
fourFAR.coreRouter?.linkLayers[*].NWIName="IPv6PPPInterface"
fourFAR.router*.linkLayers[0].NWIName="EtherModule"
fourFAR.router*.linkLayers[1].NWIName="IPv6PPPInterface"
fourFAR.ap*.ds[*].NWIName="EtherModuleAP"

fourFAR.routing6.ra[2].RoutingAlgorithmType="NonExistent"
fourFAR.routing6.ra[0].RoutingAlgorithmType="RoutingAlgorithmStatic"
fourFAR.routing6.ra[1].RoutingAlgorithmType="RoutingProtocolRIP"
;fourFAR.*.routing6.RACount = 2

;; network traffic load generator
**.loadGenerator1.rangeMinX = 170
**.loadGenerator1.rangeMinY = 140
**.loadGenerator1.rangeMaxX = 320
**.loadGenerator1.rangeMaxY = 307
**.loadGenerator1.srcPrefix = "Ruby"
**.loadGenerator1.destPrefix= "Emerald"

**.loadGenerator2.rangeMinX = 605
**.loadGenerator2.rangeMinY = 170
**.loadGenerator2.rangeMaxX = 755
**.loadGenerator2.rangeMaxY = 320
**.loadGenerator2.srcPrefix = "Emerald"
**.loadGenerator2.destPrefix= "Ruby"

**.loadGenerator?.numNodes = 1
**.loadGenerator?.msgType = 8888
**.loadGenerator?.tStart = uniform(5, 10)
**.loadGenerator?.bitRate = 80000 ;bps 
**.loadGenerator?.fragmentLen = 80 ;bytes

fourFAR.mn1.brSink.recordStats=true
fourFAR.mn2.brSink.recordStats=true

;; VoIP G711 64kpbs + RTP + UDP
fourFAR.mn?.brSrcModel.msgType = 168
fourFAR.mn?.brSrcModel.tStart = 15
fourFAR.mn?.brSrcModel.bitRate = 80000 ;bps
fourFAR.mn?.brSrcModel.fragmentLen = 80 ;bytes

fourFAR.mn1.brSrcModel.destAddr = "3002:0:0:3:aabb:ccff:fedd:ee02"
fourFAR.mn2.brSrcModel.destAddr = "3001:0:0:1:aabb:ccff:fedd:ee01"

;; toggle link up trigger
fourFAR.mn1.linkLayers.networkInterface.linkUpTrigger=true
fourFAR.mn2.linkLayers.networkInterface.linkUpTrigger=true
**.networkInterface.linkDownTrigger=false
**.networkInterface.txPower = 0.75

**.networkInterface.authenticationTimeout = 2000
**.networkInterface.associationTimeout = 2000
**.networkInterface.crossTalk = false

*.ap1.chann = 1
*.ap3.chann = 6
*.ap5.chann = 11
*.ap7.chann = 11
*.ap9.chann = 1
*.ap11.chann = 6
*.ap13.chann = 6
*.ap15.chann = 6
*.ap17.chann = 11
*.ap19.chann = 11

*.ap2.chann = 11
*.ap4.chann = 6
*.ap6.chann = 6
*.ap8.chann = 6
*.ap10.chann = 1
*.ap12.chann = 11
*.ap14.chann = 11
*.ap16.chann = 6
*.ap18.chann = 6
*.ap20.chann = 11

[Run 0]
fourFAR.*.IPv6routingFile = xmldoc("FourFAR.xml")
network = fourFAR
include ../../../Etc/default.ini
